&HEAD CHID='validate_5_wv' /
&TIME T_END=1 /
&MESH IJK=3,3,3, XB=0,1,0,1,0,1 /

&SPEC ID = 'PVC', FORMULA = 'C2H3Cl'/

&SPEC ID = 'OXYGEN',	LUMPED_COMPONENT_ONLY = T /
&SPEC ID = 'NITROGEN',	LUMPED_COMPONENT_ONLY = T /
&SPEC ID = 'HYDROGEN CHLORIDE',	LUMPED_COMPONENT_ONLY = T /
&SPEC ID = 'WATER VAPOR',	LUMPED_COMPONENT_ONLY = T /
&SPEC ID = 'CARBON MONOXIDE',	LUMPED_COMPONENT_ONLY = T /
&SPEC ID = 'CARBON DIOXIDE',	LUMPED_COMPONENT_ONLY = T /
&SPEC ID = 'SOOT', MASS_EXTINCTION_COEFFICIENT=8700., LUMPED_COMPONENT_ONLY= T /

&SPEC ID = 'AIR', BACKGROUND = T, SPEC_ID='OXYGEN','NITROGEN', VOLUME_FRACTION=0.20987654, 0.79012346 /

&SPEC	ID = 'PRODUCTS',
	SPEC_ID(1)='HYDROGEN CHLORIDE',	VOLUME_FRACTION(1)=0.102273,
	SPEC_ID(2)='WATER VAPOR',	    VOLUME_FRACTION(2)=0.102273,
	SPEC_ID(3)='CARBON MONOXIDE',	VOLUME_FRACTION(3)=0.014377,
	SPEC_ID(4)='CARBON DIOXIDE',	VOLUME_FRACTION(4)=0.098635,
	SPEC_ID(5)='NITROGEN',	        VOLUME_FRACTION(5)=0.590906,
	SPEC_ID(6)='SOOT',	            VOLUME_FRACTION(6)=0.091536
	/

&REAC   FUEL='PVC', 
        SPEC_ID_NU ='PVC','AIR','PRODUCTS', 
        NU=-1.,-7.312418,9.777713, 
        HEAT_OF_COMBUSTION=10293.48 /