&HEAD CHID='validate_1_vc' /
&TIME T_END=1 /
&MESH IJK=3,3,3, XB=0,1,0,1,0,1 /
&REAC FUEL='PE foam (mean)', FORMULA="C2.0H4.0O0.3N0.0", HEAT_OF_COMBUSTION=29135, SOOT_YIELD=0.124, CO_YIELD=0.388, HCN_YIELD=0.0 /