&HEAD CHID='validate_1' /
&TIME T_END=1 /
&MESH IJK=3,3,3, XB=0,1,0,1,0,1 /
&REAC FUEL='PE foam (mean)', FORMULA="C2.0H4.0O0.3N0.0", HEAT_OF_COMBUSTION=34225.0, SOOT_YIELD=0.07625, CO_YIELD=0.02025, HCN_YIELD=0.0 /