&HEAD CHID='validate_4_vc' /
&TIME T_END=1 /
&MESH IJK=3,3,3, XB=0,1,0,1,0,1 /
&REAC FUEL='PUR foam rigid (mean)', FORMULA="C6.2H7.1O2.3N1.1", HEAT_OF_COMBUSTION=7813, SOOT_YIELD=0.236, CO_YIELD=0.59, HCN_YIELD=0.0472 /