&HEAD CHID='validate_0' /
&TIME T_END=1 /
&MESH IJK=3,3,3, XB=0,1,0,1,0,1 /
&REAC FUEL='Wood(redoak)', FORMULA="C6.0H10.0O6.0N0.0", HEAT_OF_COMBUSTION=12400.0, SOOT_YIELD=0.015, CO_YIELD=0.004, HCN_YIELD=0.0 /