&HEAD CHID='validate_4' /
&TIME T_END=1 /
&MESH IJK=3,3,3, XB=0,1,0,1,0,1 /
&REAC FUEL='PUR foam rigid (mean)', FORMULA="C6.2H7.1O2.3N1.1", HEAT_OF_COMBUSTION=16925.0, SOOT_YIELD=0.118, CO_YIELD=0.0295, HCN_YIELD=0.0023599999999999997 /