&HEAD CHID='validate_0_vc' /
&TIME T_END=1 /
&MESH IJK=3,3,3, XB=0,1,0,1,0,1 /
&REAC FUEL='Wood(redoak)', FORMULA="C6.0H10.0O6.0N0.0", HEAT_OF_COMBUSTION=10880, SOOT_YIELD=0.028, CO_YIELD=0.145, HCN_YIELD=0.0 /