&HEAD CHID='validate_2' /
&TIME T_END=1 /
&MESH IJK=3,3,3, XB=0,1,0,1,0,1 /
&REAC FUEL='PS', FORMULA="C8.0H7.9O1.0N0.0", HEAT_OF_COMBUSTION=27000.0, SOOT_YIELD=0.164, CO_YIELD=0.06, HCN_YIELD=0.0 /