&HEAD CHID='validate_5_vc' /
&TIME T_END=1 /
&MESH IJK=3,3,3, XB=0,1,0,1,0,1 /

&SPEC ID = 'PVC', FORMULA = 'C2H3Cl'/

&SPEC ID = 'OXYGEN',	LUMPED_COMPONENT_ONLY = T /
&SPEC ID = 'NITROGEN',	LUMPED_COMPONENT_ONLY = T /
&SPEC ID = 'HYDROGEN CHLORIDE',	LUMPED_COMPONENT_ONLY = T /
&SPEC ID = 'WATER VAPOR',	LUMPED_COMPONENT_ONLY = T /
&SPEC ID = 'CARBON MONOXIDE',	LUMPED_COMPONENT_ONLY = T /
&SPEC ID = 'CARBON DIOXIDE',	LUMPED_COMPONENT_ONLY = T /
&SPEC ID = 'SOOT', MASS_EXTINCTION_COEFFICIENT=8700., LUMPED_COMPONENT_ONLY= T /

&SPEC ID = 'AIR', BACKGROUND = T, SPEC_ID='OXYGEN','NITROGEN', VOLUME_FRACTION=0.20962751, 0.79037249 /

&SPEC	ID = 'PRODUCTS',
	SPEC_ID(1)='HYDROGEN CHLORIDE',	VOLUME_FRACTION(1)=0.136363,
	SPEC_ID(2)='WATER VAPOR',	    VOLUME_FRACTION(2)=0.136363,
	SPEC_ID(3)='CARBON MONOXIDE',	VOLUME_FRACTION(3)=0.104362,
	SPEC_ID(4)='CARBON DIOXIDE',	VOLUME_FRACTION(4)=0.000195,
	SPEC_ID(5)='NITROGEN',	        VOLUME_FRACTION(5)=0.454548
	SPEC_ID(6)='SOOT',	            VOLUME_FRACTION(6)=0.168168
	/

&REAC   FUEL='PVC', 
        SPEC_ID_NU ='PVC','AIR','PRODUCTS', 
        NU=-1.,-4.217463,7.333367 
        HEAT_OF_COMBUSTION=5929.76 /